
Note: Compatibility modes selected: hs a

Warning: m=xx on .subckt line will override multiplier m hierarchy!


Circuit: ** sch_path: /home/ubuntu/desktop/design/xschem/q2_opamp_settling.sch

option SCALE: Scale is set to 1e-06 for instance and model parameters
Doing analysis at TEMP = 27.000000 and TNOM = 27.000000

Warning: v3: no DC value, transient time 0 value used

Initial Transient Solution
--------------------------

Node                                   Voltage
----                                   -------
vss                                          0
ibias                                 0.622734
vdd                                        1.2
net1                                  0.573275
vx                                    0.681473
out                                   0.110115
net2                                  0.698146
plus                                      -0.2
v3#branch                                    0
v2#branch                         -0.000659492
v5#branch                          0.000536877


No. of Data Rows : 20020
Error: no such vector v3
  in term: v(v3)

Reset re-loads circuit ** sch_path: /home/ubuntu/desktop/design/xschem/q2_opamp_settling.sch

Circuit: ** sch_path: /home/ubuntu/desktop/design/xschem/q2_opamp_settling.sch

option SCALE: Scale is set to 1e-06 for instance and model parameters
Doing analysis at TEMP = 27.000000 and TNOM = 27.000000

Warning: v3: no DC value, transient time 0 value used

No. of Data Rows : 1
binary raw file "q2_opamp.raw"
binary raw file "/home/ubuntu/Desktop/design/xschem/q2_opamp_settling.raw"
Doing analysis at TEMP = 27.000000 and TNOM = 27.000000

Warning: v3: no DC value, transient time 0 value used
OP information in rawfile.

Total analysis time (seconds) = 0.001

Total elapsed time (seconds) = 9.045 

Total DRAM available = 3827.594 MB.
DRAM currently available = 1159.469 MB.
Maximum ngspice program size =  689.375 MB.
Current ngspice program size =  665.770 MB.

Shared ngspice pages =   10.277 MB.
Text (code) pages =    5.332 MB.
Stack = 0 bytes.
Library pages =  663.609 MB.

