
Note: Compatibility modes selected: hs a

Warning: m=xx on .subckt line will override multiplier m hierarchy!


Circuit: ** sch_path: /home/ubuntu/desktop/design/xschem/q2_opamp_settling_0.8patlama.sch

option SCALE: Scale is set to 1e-06 for instance and model parameters
Doing analysis at TEMP = 27.000000 and TNOM = 27.000000

Warning: v1: no DC value, transient time 0 value used

Initial Transient Solution
--------------------------

Node                                   Voltage
----                                   -------
net3                                       0.2
minus                                      0.5
vss                                          0
ibias                                 0.622734
vdd                                        1.2
net1                                  0.926537
vx                                    0.845703
out                                   0.135487
net2                                   1.09578
plus                                       0.2
v2#branch                          -0.00147243
v5#branch                           0.00132444
v3#branch                                    0
v1#branch                                    0


No. of Data Rows : 20020
Error: no such vector plus
Doing analysis at TEMP = 27.000000 and TNOM = 27.000000

Warning: v1: no DC value, transient time 0 value used

No. of Data Rows : 1
binary raw file "q2_opamp_settling_0.8patlama.raw"
binary raw file "/home/ubuntu/Desktop/design/xschem/q2_opamp_settling_0.8patlama.raw"
Doing analysis at TEMP = 27.000000 and TNOM = 27.000000

Warning: v1: no DC value, transient time 0 value used
OP information in rawfile.

Total analysis time (seconds) = 0.396

Total elapsed time (seconds) = 10.426 

Total DRAM available = 3827.594 MB.
DRAM currently available = 1094.934 MB.
Maximum ngspice program size =  689.359 MB.
Current ngspice program size =  665.578 MB.

Shared ngspice pages =   10.102 MB.
Text (code) pages =    5.332 MB.
Stack = 0 bytes.
Library pages =  663.594 MB.

